output/compact_ny_2025/partial_spc/nominal/V4_2025_JUL25_NIGHT/replay_audit_branch.csv
branch_row,device_key,from_bus,to_bus,online,rate_a_mva,from_mva,to_mva,from_overload_mva,to_overload_mva,angle_deg,angle_min_deg,angle_max_deg,angle_below_min_deg,angle_above_max_deg,violated,invalid_limit_bounds,stored_terminal_flow_error_mva,stored_terminal_flow_inconsistent
1,NPCC_S7:BRANCH_ROW:33,37,38,1,2500,163.235781027255,170.735881356028,0,0,-1.44026852848454,-360,360,0,0,0,0,3.17764371615651e-14,0
2,NPCC_S7:BRANCH_ROW:34,37,39,1,3388,423.477519582972,434.33445239969,0,0,1.57511391978168,-360,360,0,0,0,0,1.13686837721616e-13,0
3,NPCC_S7:BRANCH_ROW:35,37,40,1,2500,87.6396608300859,83.2506925195714,0,0,-0.137268187731509,-360,360,0,0,0,0,1.4210854715202e-14,0
4,NPCC_S7:BRANCH_ROW:36,37,43,0,3745.98196383403,0,0,0,0,-1.70215418928903,-360,360,0,0,0,0,0,0
5,NPCC_S7:BRANCH_ROW:37,38,69,1,1216,236.455379963193,257.737981309995,0,0,-6.48838017045593,-360,360,0,0,0,0,4.01943669423046e-14,0
6,NPCC_S7:BRANCH_ROW:38,39,73,1,2500,341.672215936594,341.517602235948,0,0,3.34430083736043,-360,360,0,0,0,0,5.85928550210846e-14,0
7,NPCC_S7:BRANCH_ROW:39,39,73,1,2500,341.672215936594,341.517602235948,0,0,3.34430083736043,-360,360,0,0,0,0,5.85928550210846e-14,0
8,NPCC_S7:BRANCH_ROW:40,40,44,0,1328.76341358641,0,0,0,0,-0.456412254092781,-360,360,0,0,0,0,0,0
9,NPCC_S7:BRANCH_ROW:41,41,42,1,2500,391.925789335064,395.716447347788,0,0,-1.24520586590669,-360,360,0,0,0,0,6.35528743231302e-14,0
10,NPCC_S7:BRANCH_ROW:42,41,45,1,314.254622579561,24.3864092711162,30.8886345783345,0,0,2.01662430241352,-360,360,0,0,0,0,1.09631586470083e-13,0
11,NPCC_S7:BRANCH_ROW:43,43,44,1,2500,190.670999058566,191.575671281482,0,0,1.10847374746474,-360,360,0,0,0,0,7.105427357601e-15,0
12,NPCC_S7:BRANCH_ROW:44,43,50,1,3463.47124449306,332.058172278728,340.417260032182,0,0,-4.04728567926362,-360,360,0,0,0,0,7.47658443627069e-13,0
13,NPCC_S7:BRANCH_ROW:45,43,50,1,3463.47124449306,332.058172278728,340.417260032182,0,0,-4.04728567926362,-360,360,0,0,0,0,7.47658443627069e-13,0
14,NPCC_S7:BRANCH_ROW:46,44,45,1,2500,225.602618913553,225.248975132755,0,0,2.4990509330693,-360,360,0,0,0,0,7.30521215939957e-13,0
15,NPCC_S7:BRANCH_ROW:47,44,48,0,6896.14528055676,0,0,0,0,5.03454878978281,-360,360,0,0,0,0,0,0
16,NPCC_S7:BRANCH_ROW:48,45,46,1,2040.85471944324,15.1915286222906,24.255314134819,0,0,1.91900847253421,-360,360,0,0,0,0,4.88740301285788e-14,0
17,NPCC_S7:BRANCH_ROW:49,45,51,1,489.56239109923,71.239460379625,73.9363399310616,0,0,-6.23269533403937,-360,360,0,0,0,0,1.04970515499006e-13,0
18,NPCC_S7:BRANCH_ROW:50,45,71,1,166.495119914644,32.9088383093785,37.4892436270713,0,0,-11.4474613656495,-360,360,0,0,0,0,4.67286527266918e-14,0
19,NPCC_S7:BRANCH_ROW:51,46,47,1,2500,49.1746071791407,50.1109900168506,0,0,-2.17467081567069,-360,360,0,0,0,0,7.105427357601e-15,0
20,NPCC_S7:BRANCH_ROW:52,46,49,1,2500,20.7924785985983,16.860504637025,0,0,4.08807609249737,-360,360,0,0,0,0,5.32907051820075e-15,0
21,NPCC_S7:BRANCH_ROW:53,47,48,1,2500,561.241642717786,685.962007671104,0,0,2.79116019984999,-360,360,0,0,0,0,1.13686837721616e-13,0
22,NPCC_S7:BRANCH_ROW:54,50,51,1,2500,632.788134377696,719.835415815629,0,0,1.42211502575829,-360,360,0,0,0,0,9.10493354219929e-13,0
23,NPCC_S7:BRANCH_ROW:55,50,52,1,2858.06690137886,103.679111325667,212.354901322984,0,0,-0.360204590384857,-360,360,0,0,0,0,6.56166115539645e-13,0
24,NPCC_S7:BRANCH_ROW:56,51,53,1,290.964700741948,85.8719723223109,86.7581314983445,0,0,2.40377790073476,-360,360,0,0,0,0,0,0
25,NPCC_S7:BRANCH_ROW:57,51,72,1,2500,153.46220085619,166.279227251546,0,0,-1.77423835298542,-360,360,0,0,0,0,7.105427357601e-15,0
26,NPCC_S7:BRANCH_ROW:58,52,53,1,2500,175.653502099742,169.959596277138,0,0,4.18609751687791,-360,360,0,0,0,0,2.8421709430404e-14,0
27,NPCC_S7:BRANCH_ROW:59,53,55,1,997.983883346124,47.7746635559232,54.2073242468761,0,0,-3.93339156670593,-360,360,0,0,0,0,9.05941988094128e-14,0
28,NPCC_S7:BRANCH_ROW:60,53,65,1,785.968397879188,223.598774189452,267.795915208143,0,0,4.5412092720358,-360,360,0,0,0,0,2.84225767789075e-14,0
29,NPCC_S7:BRANCH_ROW:61,54,56,1,789.941803,742.045442126077,789.941802986399,0,0,5.04817019089164,-360,360,0,0,0,0,1.13908665908592e-13,0
30,NPCC_S7:BRANCH_ROW:62,54,62,1,789.941803,151.184503663588,155.346033036713,0,0,4.83240891834702,-360,360,0,0,0,0,1.71121351098581e-13,0
31,NPCC_S7:BRANCH_ROW:65,55,57,1,789.941803,467.910748711377,569.714138329117,0,0,3.89585342044019,-360,360,0,0,0,0,3.94847006346305e-13,0
32,NPCC_S7:BRANCH_ROW:66,55,59,1,789.941803,127.507484266485,138.158190671679,0,0,3.56412264587956,-360,360,0,0,0,0,2.19349502692028e-13,0
33,NPCC_S7:BRANCH_ROW:67,56,58,1,2500,236.944575254146,234.72697813299,0,0,0.966811150421263,-360,360,0,0,0,0,2.8421709430404e-14,0
34,NPCC_S7:BRANCH_ROW:68,57,59,1,2500,156.146195513012,145.142612239152,0,0,-0.331730774560633,-360,360,0,0,0,0,0,0
35,NPCC_S7:BRANCH_ROW:69,58,60,1,2500,310.855540070097,311.466941240401,0,0,0.839636865761011,-360,360,0,0,0,0,7.96600485773305e-13,0
36,NPCC_S7:BRANCH_ROW:70,58,62,1,2500,144.630892472688,144.285691241372,0,0,-1.18257242296588,-360,360,0,0,0,0,7.41419936545389e-13,0
37,NPCC_S7:BRANCH_ROW:71,59,61,1,2500,67.3657352369986,67.3086877396103,0,0,1.21755076512264,-360,360,0,0,0,0,1.46482137552712e-14,0
38,NPCC_S7:BRANCH_ROW:73,62,63,1,620,23.2342549635066,11.1159837592277,0,0,-0.285328973041822,-360,360,0,0,0,0,1.8168622561706e-13,0
39,NPCC_S7:BRANCH_ROW:74,63,64,1,2500,103.199205063873,105.707455592608,0,0,2.34479428821707,-360,360,0,0,0,0,1.58882185807825e-14,0
40,NPCC_S7:BRANCH_ROW:75,63,67,1,2500,107.49813449166,111.201515994769,0,0,-5.86664530381795,-360,360,0,0,0,0,1.4210854715202e-14,0
41,NPCC_S7:BRANCH_ROW:76,64,65,1,2500,142.262917672477,148.318049681969,0,0,4.7639542912839,-360,360,0,0,0,0,7.105427357601e-15,0
42,NPCC_S7:BRANCH_ROW:77,64,68,1,2500,71.3377024775744,72.8945117780315,0,0,-8.97923654529751,-360,360,0,0,0,0,1.46482137552712e-14,0
43,NPCC_S7:BRANCH_ROW:78,66,67,1,2500,66.4944638780008,65.45064222245,0,0,0.196602534737496,-360,360,0,0,0,0,1.46482137552712e-14,0
44,NPCC_S7:BRANCH_ROW:79,66,69,1,2500,171.347797694314,164.806484164155,0,0,2.62568538913975,-360,360,0,0,0,0,1.4210854715202e-14,0
45,NPCC_S7:BRANCH_ROW:81,67,68,1,2500,125.262275996317,117.12399765355,0,0,-0.767796953262485,-360,360,0,0,0,0,2.8421709430404e-14,0
46,NPCC_S7:BRANCH_ROW:82,67,70,1,2500,15.586262265061,11.6395663689786,0,0,0.46504837614169,-360,360,0,0,0,0,1.77635683940025e-15,0
47,NPCC_S7:BRANCH_ROW:84,68,71,1,2500,29.1259912340229,24.9949016897273,0,0,1.58343763220068,-360,360,0,0,0,0,3.58036167304945e-15,0
48,NPCC_S7:BRANCH_ROW:85,69,71,1,2500,100.214120464203,97.5729759633986,0,0,-1.61344217546406,-360,360,0,0,0,0,1.4210854715202e-14,0
49,NPCC_S7:BRANCH_ROW:86,70,71,1,2500,11.6395663689788,11.6357132933942,0,0,0.35059230279651,-360,360,0,0,0,0,2.22044604925031e-16,0
50,NPCC_S7:BRANCH_ROW:87,71,72,1,2500,958.611574234947,1076.10828198668,0,0,3.44052767862475,-360,360,0,0,0,0,1.4210854715202e-14,0
51,NPCC_S7:BRANCH_ROW:88,73,74,0,1599.84337349398,0,0,0,0,2.71586768279761,-360,360,0,0,0,0,0,0
52,NPCC_S7:BRANCH_ROW:89,73,74,0,1599.84337349398,0,0,0,0,2.71586768279761,-360,360,0,0,0,0,0,0
53,NPCC_S7:BRANCH_ROW:90,74,77,1,2500,105.376517074722,106.837199915274,0,0,-0.27147422256502,-360,360,0,0,0,0,2.80408828665605e-12,0
54,NPCC_S7:BRANCH_ROW:91,74,78,1,2889.50495049505,368.646781576666,376.240031144227,0,0,0.908773698104786,-360,360,0,0,0,0,5.6843418860808e-14,0
55,NPCC_S7:BRANCH_ROW:92,74,78,1,2889.50495049505,368.646781576666,376.240031144227,0,0,0.908773698104786,-360,360,0,0,0,0,5.6843418860808e-14,0
56,NPCC_S7:BRANCH_ROW:94,76,77,0,4611.31325301205,0,0,0,0,0.502687424578316,-360,360,0,0,0,0,0,0
57,NPCC_S7:BRANCH_ROW:95,78,79,0,908.848753535103,0,0,0,0,1.82044070805642,-360,360,0,0,0,0,0,0
58,NPCC_S7:BRANCH_ROW:96,78,80,1,984.654731457801,234.266773004227,209.260570028569,0,0,0.549461630234537,-360,360,0,0,0,0,4.05507679300293e-13,0
59,NPCC_S7:BRANCH_ROW:97,78,81,0,503.818330764024,0,0,0,0,-1.53381886163191,-360,360,0,0,0,0,0,0
60,NPCC_S7:BRANCH_ROW:98,78,82,1,451.473569126203,259.362200591965,240.516409413544,0,0,2.60384024159256,-360,360,0,0,0,0,3.4576501834057e-13,0
61,NPCC_S7:BRANCH_ROW:219,40,41,1,2500,131.768211743913,134.268884547517,0,0,0.0260143765629959,-360,360,0,0,0,0,4.44089209850063e-16,0
62,NPCC_S7:BRANCH_ROW:220,49,48,0,2500,0,0,0,0,-3.47158670831807,-360,360,0,0,0,0,0,0
63,NPCC_S7:BRANCH_ROW:222,54,52,1,4583.01611665388,214.124633967405,221.29813594555,0,0,2.92852173589246,-360,360,0,0,0,0,2.8421709430404e-14,0
64,NPCC_S7:BRANCH_ROW:223,54,55,1,2500,345.90592509009,345.905925090375,0,0,3.18122768606443,-360,360,0,0,0,0,5.75331240096291e-14,0
65,NPCC_S7:BRANCH_ROW:224,56,57,1,2500,94.6273121613418,107.783456537992,0,0,2.02891091561299,-360,360,0,0,0,0,1.4210854715202e-14,0
66,NPCC_S7:BRANCH_ROW:225,58,59,1,2500,139.093859406,139.426543666893,0,0,0.730368990631094,-360,360,0,0,0,0,5.69543329542959e-14,0
67,NPCC_S7:BRANCH_ROW:226,60,61,1,2500,36.5701399010368,36.5701399010594,0,0,1.10828288999273,-360,360,0,0,0,0,3.91001324005719e-13,0
68,NPCC_S7:BRANCH_ROW:227,75,76,1,2500,123.227758803986,123.217481086668,0,0,0.546597212190814,-360,360,0,0,0,0,1.42956034590646e-14,0
69,NPCC_S7:BRANCH_ROW:234,38,39,1,1216,276.740473520174,278.410206255166,0,0,3.01538244826621,-360,360,0,0,0,0,1.4210854715202e-14,0
70,NPCC_S7:BRANCH_ROW:235,73,9002,0,2432,0,0,0,0,1.41367269354476,-360,360,0,0,0,0,0,0
71,NPCC_S7:BRANCH_ROW:236,9002,74,0,2432,0,0,0,0,1.30219498925285,-360,360,0,0,0,0,0,0
72,NPCC_S7:BRANCH_ROW:237,74,78,1,866.851485148515,112.631042998178,111.735873298004,0,0,0.908773698104786,-360,360,0,0,0,0,1.4210854715202e-14,0
73,NPCC_S7:BRANCH_ROW:238,77,78,1,650.138613861386,103.962740088456,103.201066241919,0,0,1.18024792066981,-360,360,0,0,0,0,7.00461447546189e-13,0
74,NPCC_S7:BRANCH_ROW:239,78,81,0,1158.78216075726,0,0,0,0,-1.53381886163191,-360,360,0,0,0,0,0,0
75,NPCC_S7:BRANCH_ROW:240,78,79,0,1390.53859290871,0,0,0,0,1.82044070805642,-360,360,0,0,0,0,0,0
76,NPCC_S7:BRANCH_ROW:241,78,82,1,1390.53859290871,797.506609266272,739.558138026674,0,0,2.60384024159256,-360,360,0,0,0,0,1.70530256582424e-13,0
77,NPCC_S7:BRANCH_ROW:242,78,9003,1,2865.3452685422,319.341898059572,340.87712599298,0,0,-0.45305422039354,-360,360,0,0,0,0,5.6843418860808e-14,0
78,NPCC_S7:BRANCH_ROW:243,9003,80,1,5000,344.877079785767,366.193457089303,0,0,1.00251585062808,-360,360,0,0,0,0,1.70743286342663e-12,0
79,NPCC_S7:BRANCH_ROW:244,81,80,1,2950,380.312516131747,422.099476728131,0,0,2.08328049186644,-360,360,0,0,0,0,9.68946888731965e-13,0
80,NPCC_S7:BRANCH_ROW:245,39,9001,1,5000,109.948520210071,108.919923979779,0,0,2.0718696747622,-360,360,0,0,0,0,1.13908665908592e-13,0
81,NPCC_S7:BRANCH_ROW:246,9001,73,0,5000,0,0,0,0,1.27243116259824,-360,360,0,0,0,0,0,0
82,PERFORM2019:AC:651:858:1,73,858,1,1216,205.660321774717,208.340637083804,0,0,0.599426971290771,-360,360,0,0,0,0,2.92964275105423e-14,0
83,PERFORM2019:AC:651:858:2,73,858,1,1216,205.66020917136,208.340774055435,0,0,0.599426971290771,-360,360,0,0,0,0,2.8421709430404e-14,0
84,PERFORM2019:AC:651:902:1,73,9002,1,1216,206.074995041954,213.158659488419,0,0,1.41367269354476,-360,360,0,0,0,0,2.8421709430404e-14,0
85,PERFORM2019:AC:651:902:2,73,9002,1,1216,206.074881984364,213.158826396506,0,0,1.41367269354476,-360,360,0,0,0,0,3.17764371615651e-14,0
86,PERFORM2019:AC:858:902:1,858,9002,1,1216,208.340568598394,212.750154127292,0,0,0.814245722253988,-360,360,0,0,0,0,3.17764371615651e-14,0
87,PERFORM2019:AC:858:902:2,858,9002,1,1216,208.340842541655,212.749820575586,0,0,0.814245722253988,-360,360,0,0,0,0,7.105427357601e-15,0
88,PERFORM2019:AC:897:902:1,9002,74,1,1216,425.90680722243,426.464662889118,0,0,1.30219498925285,-360,360,0,0,0,0,6.35528743231302e-14,0
89,PERFORM2019:AC:897:902:2,9002,74,1,1216,425.910644589235,426.460817117574,0,0,1.30219498925285,-360,360,0,0,0,0,6.35528743231302e-14,0
90,PERFORM2019:AC:774:1519:1,76,774,1,1216,103.585409277448,102.719103570474,0,0,0.17054518308745,-360,360,0,0,0,0,1.4210854715202e-14,0
91,PERFORM2019:AC:774:900:1,774,77,1,1725,102.71910357047,102.209394456071,0,0,0.332142241490866,-360,360,0,0,0,0,2.78219958371228e-12,0
92,PERFORM2019:AC:900:1519:1,76,77,1,1725,102.716917892572,101.315900829173,0,0,0.502687424578316,-360,360,0,0,0,0,1.4367202229514e-12,0
93,NY2025:CEEC:351,43,9101,1,2000,108.527620611565,76.2846120246029,0,0,1.1358729504705,-360,360,0,0,0,0,4.26695555314336e-14,0
94,NY2025:CEEC:352,43,9101,1,2000,108.527620611565,76.2846120246029,0,0,1.1358729504705,-360,360,0,0,0,0,4.26695555314336e-14,0
95,NY2025:CEEC:361,9101,37,1,2000,104.13504997334,110.298409480084,0,0,0.566281238818534,-360,360,0,0,0,0,9.94918420711631e-14,0
96,NY2025:CEEC:362,9101,37,1,2000,104.13504997334,110.298409480084,0,0,0.566281238818534,-360,360,0,0,0,0,9.94918420711631e-14,0
97,NY2025:CEEC:14,43,9102,1,2000,103.936637209382,67.0590737379874,0,0,1.07937756652317,-360,360,0,0,0,0,2.8421709430404e-14,0
98,NY2025:CEEC:371,9101,9102,1,2000,64.5166067874401,61.8695751114034,0,0,-0.0564953839473261,-360,360,0,0,0,0,3.69499302554702e-13,0
99,NY2025:CEEC:LEGACY230:1,40,9103,1,1328.76341358641,51.1178837723005,71.7089406777402,0,0,-0.317803853011284,-360,360,0,0,0,0,1.43214466921978e-14,0
100,NY2025:CEEC:LEGACY230:2,9103,44,1,1328.76341358641,39.5540352613873,60.3917240936162,0,0,-0.138608401081497,-360,360,0,0,0,0,4.44089209850063e-16,0
101,NY2025:CEEC:GORDON_XFMR,9102,9103,1,1200,32.8017296233066,33.0335664171814,0,0,0.167704582023067,-360,360,0,0,0,0,1.24344978758018e-14,0
102,NY2025:NYES:1,9001,9104,1,1800,108.91992397978,114.729524883379,0,0,0.520348150528834,-360,360,0,0,0,0,3.5640642306545e-13,0
103,NY2025:NYES:2,9104,73,1,1800,114.729524883377,129.067850424561,0,0,0.752083012069403,-360,360,0,0,0,0,1.4210854715202e-14,0
104,NY2025:SMART_PATH:1,1220,48,0,575,0,0,0,0,3.86290964025099,-360,360,0,0,0,0,0,0
105,NY2025:SMART_PATH:2,1220,48,0,575,0,0,0,0,3.86290964025099,-360,360,0,0,0,0,0,0
106,NY2025:SMART_PATH:3,1220,44,0,453,0,0,0,0,-1.17163914953182,-360,360,0,0,0,0,0,0
107,NY2025:SMART_PATH:4,1220,44,0,453,0,0,0,0,-1.17163914953182,-360,360,0,0,0,0,0,0
108,NY2025:NYC:DELIVERY:95:1,78,1130,1,908.848753535103,454.738626025732,439.111110102298,0,0,0.789949711264638,-360,360,0,0,0,0,1.4391604169273e-12,0
109,NY2025:NYC:DELIVERY:95:2,1130,79,1,908.848753535103,498.16095576847,478.404366787243,0,0,1.03049099679179,-360,360,0,0,0,0,1.38801572655607e-12,0
110,NY2025:NYC:DELIVERY:240:1,78,557,1,1390.53859290871,697.279647499878,673.263090006692,0,0,0.8008672616876,-360,360,0,0,0,0,1.2710574864626e-13,0
111,NY2025:NYC:DELIVERY:240:2,557,79,1,1390.53859290871,758.29034746355,728.275567329948,0,0,1.01957344636882,-360,360,0,0,0,0,1.2710574864626e-13,0
112,NY2025:NYC:DELIVERY:97:1,78,1129,1,503.818330764024,109.552715645186,110.589443365427,0,0,-0.739495210992159,-360,360,0,0,0,0,1.62028673159275e-13,0
113,NY2025:NYC:DELIVERY:97:2,1129,81,1,503.818330764024,126.285969194244,127.755200165626,0,0,-0.794323650639747,-360,360,0,0,0,0,1.89596449674331e-13,0
114,NY2025:NYC:DELIVERY:239:1,78,1129,1,1158.78216075726,251.56018793787,253.940771738173,0,0,-0.739495210992159,-360,360,0,0,0,0,3.73829221813534e-13,0
115,NY2025:NYC:DELIVERY:239:2,1129,81,1,1158.78216075726,289.983885450273,293.357603911821,0,0,-0.794323650639747,-360,360,0,0,0,0,3.51557130126508e-13,0
116,NY2025:NYC:RAINEY_XFMR,1130,1529,1,1500,60.3672139078083,61.480490515852,0,0,-0.716094884920166,-360,360,0,0,0,0,3.38758281971542e-13,0
117,NY2025:NYC:ASTORIA_XFMR,557,1493,1,1500,86.1830702729552,87.9409635688809,0,0,-0.774187376091589,-360,360,0,0,0,0,1.58882185807825e-14,0
118,NY2025:NYC:CORONA_BASELINE,1493,601,1,2248,87.9409635688816,79.1335693084505,0,0,-0.0231363995016611,-360,360,0,0,0,0,2.72896515955588e-12,0
119,NY2025:RCC_QUEENS:CABLE,1529,601,1,300,61.4804905158523,59.190884387668,0,0,-0.0703113402501234,-360,360,0,0,0,0,6.730681464481e-13,0
120,NY2025:RCC_BROOKLYN:PAR,1129,9112,1,300,55.485087376712,54.6493024485026,0,0,0.50061757121993,-360,360,0,0,0,0,3.6861009524329e-13,0
121,NY2025:RCC_BROOKLYN:CABLE,9112,9111,1,300,54.6493024484983,55.0539477905662,0,0,0.00963307041077321,-360,360,0,0,0,0,2.19410454051341e-11,0
122,NY2025:RCC_STATEN:PAR,81,9113,1,300,76.5704445620794,75.2615034827118,0,0,0.926635321632466,-360,360,0,0,0,0,7.105427357601e-15,0
123,NY2025:RCC_STATEN:CABLE,9113,9114,1,300,75.261503482711,78.2317969466535,0,0,0.182278727290198,-360,360,0,0,0,0,3.52775702688928e-13,0
124,NY2025:NYC:GREENWOOD_CORONA,9111,601,1,600,136.181504417949,138.288750207242,0,0,0.232788055455805,-360,360,0,0,0,0,3.4576501834057e-13,0
125,NY2025:NYC:FOX_GREENWOOD,9114,9111,1,600,78.2317969466521,81.529650998408,0,0,0.195660243347787,-360,360,0,0,0,0,3.47003931639017e-13,0
126,NY2025_SPC:MH2,48,9120,1,433.826765771777,58.2395919028332,58.7022207313785,0,0,-0.0568654979131811,-360,360,0,0,0,0,7.94410929039127e-15,0
127,NY2025_SPC:MH3,48,9120,1,433.826765771777,58.2395919028332,58.7022207313785,0,0,-0.0568654979131811,-360,360,0,0,0,0,7.94410929039127e-15,0
128,NY2025_SPC:HA2,9121,1220,1,1300.88273978672,166.697482637402,210.931171476278,0,0,-3.14704049686193,-360,360,0,0,0,0,2.8421709430404e-14,0
129,NY2025_SPC:HW2,9121,9123,1,1863.78193173853,51.1212396570425,54.4519823909924,0,0,0.376644258643218,-360,360,0,0,0,0,7.105427357601e-15,0
130,NY2025_SPC:LINE11,9122,43,1,1863.78193173853,217.699091140916,241.797203163814,0,0,-1.81144636987458,-360,360,0,0,0,0,4.01943669423046e-14,0
131,NY2025_SPC:LINE13,1220,9122,1,1863.78193173853,210.931171476281,217.699091140916,0,0,-0.468666527121988,-360,360,0,0,0,0,4.01943669423046e-14,0
132,NY2025_SPC:AT2,9120,9121,1,450,58.7022207313832,58.348254834598,0,0,-0.659003645475884,-360,360,0,0,0,0,7.94410929039127e-15,0
133,NY2025_SPC:AT3,9120,9121,1,450,58.7022207313832,58.348254834598,0,0,-0.659003645475884,-360,360,0,0,0,0,7.94410929039127e-15,0
134,NY2025_SPC:TR2,9123,9124,1,1350,54.4519823909956,54.3495863557486,0,0,0.206795323749198,-360,360,0,0,0,0,1.55261717330322e-12,0
135,NY2025_SPC:PLATTS_REGIONAL_EQ,49,9124,1,2500,52.482655296873,54.349586355745,0,0,-3.60401626931472,-360,360,0,0,0,0,1.03273420775087e-13,0
